iidm/iidm-xml-converter/src/test/resources/V1_4/regulatingStaticVarCompensatorRoundTripRef.xml
<?xml version="1.0" encoding="UTF-8"?>
<iidm:network xmlns:iidm="http://www.powsybl.org/schema/iidm/1_4" id="svcTestCase" caseDate="2016-06-29T14:54:03.427+02:00" forecastDistance="0" sourceFormat="code">
    <iidm:substation id="S1" country="FR">
        <iidm:voltageLevel id="VL1" nominalV="380.0" topologyKind="BUS_BREAKER">
            <iidm:busBreakerTopology>
                <iidm:bus id="B1"/>
            </iidm:busBreakerTopology>
            <iidm:generator id="G1" energySource="OTHER" minP="50.0" maxP="150.0" voltageRegulatorOn="true" targetP="100.0" targetV="400.0" busId="B1" connectionStatus="CONNECTED">
                <iidm:minMaxReactiveLimits minQ="-1.7976931348623157E308" maxQ="1.7976931348623157E308"/>
            </iidm:generator>
        </iidm:voltageLevel>
    </iidm:substation>
    <iidm:substation id="S2" country="FR">
        <iidm:voltageLevel id="VL2" nominalV="380.0" topologyKind="BUS_BREAKER">
            <iidm:busBreakerTopology>
                <iidm:bus id="B2"/>
            </iidm:busBreakerTopology>
            <iidm:load id="L2" loadType="UNDEFINED" p0="100.0" q0="50.0" busId="B2" connectionStatus="CONNECTED"/>
            <iidm:staticVarCompensator id="SVC2" bMin="2.0E-4" bMax="8.0E-4" voltageSetpoint="390.0" regulationMode="VOLTAGE" busId="B2" connectionStatus="CONNECTED">
                <iidm:property name="test" value="test"/>
                <iidm:regulatingTerminal id="L2"/>
            </iidm:staticVarCompensator>
        </iidm:voltageLevel>
    </iidm:substation>
    <iidm:line id="L1" r="4.0" x="200.0" g1="0.0" b1="0.0" g2="0.0" b2="0.0" busId1="B1" connectionStatus1="CONNECTED" voltageLevelId1="VL1" busId2="B2" connectionStatus2="CONNECTED" voltageLevelId2="VL2"/>
</iidm:network>
